HA/HA4/data/bus.csv
bus_i,type,Pd,Qd,Gs,Bs,area,Vm,Va,baseKV,zone,Vmax,Vmin
1.0,3.0,0.0,0.0,0.0,0.0,1.0,1.0,0.0,345.0,1.0,1.1,0.9
2.0,2.0,0.0,0.0,0.0,0.0,1.0,1.0,0.0,345.0,1.0,1.1,0.9
3.0,2.0,0.0,0.0,0.0,0.0,1.0,1.0,0.0,345.0,1.0,1.1,0.9
4.0,1.0,0.0,0.0,0.0,0.0,1.0,1.0,0.0,345.0,1.0,1.1,0.9
5.0,1.0,90.0,30.0,0.0,0.0,1.0,1.0,0.0,345.0,1.0,1.1,0.9
6.0,1.0,0.0,0.0,0.0,0.0,1.0,1.0,0.0,345.0,1.0,1.1,0.9
7.0,1.0,100.0,35.0,0.0,0.0,1.0,1.0,0.0,345.0,1.0,1.1,0.9
8.0,1.0,0.0,0.0,0.0,0.0,1.0,1.0,0.0,345.0,1.0,1.1,0.9
9.0,1.0,125.0,50.0,0.0,0.0,1.0,1.0,0.0,345.0,1.0,1.1,0.9
